powerfulcases/cases/matpower/case2868rte/case2868rte.raw
0, 100, 33, 0, 0, 60  / 28-Jan-2026 21:51:41 - MATPOWER 8.1


     1, 'BUS 1       ',        63, 1,    1,    1, 1,  1.03957074, -12.7856509, 1.06349, 0.936508, 1.06349, 0.936508
     2, 'BUS 2       ',       225, 1,    1,    1, 1,  1.06516669, -13.3775389, 1.08889, 0.888889, 1.08889, 0.888889
     3, 'BUS 3       ',       380, 1,    1,    1, 1,  1.08888546, -4.51671702, 1.10263,    1, 1.10263,    1
     4, 'BUS 4       ',        63, 1,    1,    1, 1,  1.00600996, -20.9505448, 1.07937, 0.920635, 1.07937, 0.920635
     5, 'BUS 5       ',        45, 1,    1,    1, 1, 0.942209712, -9.07367325,    1, 0.888889,    1, 0.888889
     6, 'BUS 6       ',        45, 1,    1,    1, 1,  0.94296561, -9.11016114,    1, 0.888889,    1, 0.888889
     7, 'BUS 7       ',       225, 1,    1,    1, 1,  1.06730298, -11.3034406, 1.08444,    1, 1.08444,    1
     8, 'BUS 8       ',        63, 1,    1,    1, 1,  1.00974411, -19.5488389, 1.06349, 0.968254, 1.06349, 0.968254
    10, 'BUS 10      ',       150, 1,    1,    1, 1,  1.05674633,  -7.6859698, 1.10667,  0.9, 1.10667,  0.9
    11, 'BUS 11      ',       225, 1,    1,    1, 1,  1.04778703, -10.4959639, 1.08889, 0.933333, 1.08889, 0.933333
  2571, 'BUS 2571    ',       225, 1,    1,    1, 1,  1.04686282, -11.4360738, 1.08889, 0.933333, 1.08889, 0.933333
    12, 'BUS 12      ',       380, 1,    1,    1, 1,   1.0570783, -10.6257474, 1.10526,    1, 1.10526,    1
  2572, 'BUS 2572    ',       380, 1,    1,    1, 1,  1.06291996, -10.1490097, 1.10526,    1, 1.10526,    1
    13, 'BUS 13      ',       225, 1,    1,    1, 1,  1.06118059, -20.8121594, 1.09067,    1, 1.09067,    1
    14, 'BUS 14      ',        63, 1,    1,    1, 1, 0.998402273, -19.5349019, 1.06349, 0.936508, 1.06349, 0.936508
    15, 'BUS 15      ',        63, 1,    1,    1, 1,  1.00960184, -16.8840236, 1.06349, 0.936508, 1.06349, 0.936508
    16, 'BUS 16      ',       225, 1,    1,    1, 1,  1.03332753, -15.2015161, 1.08889, 0.933333, 1.08889, 0.933333
    17, 'BUS 17      ',       225, 1,    1,    1, 1,  1.07437329, -22.1328317, 1.08889,    1, 1.08889,    1
    18, 'BUS 18      ',       225, 1,    1,    1, 1,  1.06826934,  -19.369661, 1.08962,    1, 1.08962,    1
    19, 'BUS 19      ',        63, 2,    1,    1, 1,  1.04150565,  -15.107511, 1.08661, 0.920635, 1.08661, 0.920635
    20, 'BUS 20      ',       225, 1,    1,    1, 1,  1.07414904, -22.1336063, 1.08889,    1, 1.08889,    1
    21, 'BUS 21      ',       225, 1,    1,    1, 1,  1.07837745, -10.4264501, 1.08889, 0.888889, 1.08889, 0.888889
    22, 'BUS 22      ',        63, 1,    1,    1, 1, 0.990279412,  -25.014912, 1.07249, 0.936508, 1.07249, 0.936508
    23, 'BUS 23      ',        63, 1,    1,    1, 1,  1.00173474, -18.3619703, 1.06349, 0.936508, 1.06349, 0.936508
    24, 'BUS 24      ',       225, 1,    1,    1, 1,  1.08736673, -7.06750396, 1.08889,    1, 1.08889,    1
  2573, 'BUS 2573    ',       225, 1,    1,    1, 1,  1.08736631, -7.06750114, 1.08889,    1, 1.08889,    1
    25, 'BUS 25      ',       225, 1,    1,    1, 1,  1.07853363, -10.4233912, 1.08889, 0.888889, 1.08889, 0.888889
    26, 'BUS 26      ',       225, 1,    1,    1, 1,  1.07598744, -4.14811723, 1.09649, 0.986667, 1.09649, 0.986667
    27, 'BUS 27      ',        63, 1,    1,    1, 1,  1.01405223, -18.4056103, 1.06349, 0.936508, 1.06349, 0.936508
    28, 'BUS 28      ',       225, 1,    1,    1, 1,  1.05113895, -20.4941876, 1.08889,    1, 1.08889,    1
  2574, 'BUS 2574    ',       225, 1,    1,    1, 1,  1.05112133, -20.4945453, 1.08889,    1, 1.08889,    1
    29, 'BUS 29      ',        63, 1,    1,    1, 1,  1.00515521, -16.7539769, 1.06349, 0.936508, 1.06349, 0.936508
    30, 'BUS 30      ',       225, 1,    1,    1, 1,  1.06337239, -18.9692115, 1.08889,    1, 1.08889,    1
    31, 'BUS 31      ',        63, 1,    1,    1, 1,  1.04330906, -14.6242825, 1.07211, 0.936508, 1.07211, 0.936508
    32, 'BUS 32      ',        63, 1,    1,    1, 1,  1.02946566, -19.8883959, 1.06349, 0.936508, 1.06349, 0.936508
    33, 'BUS 33      ',        45, 1,    1,    1, 1, 0.937076005, -9.75466137,    1, 0.888889,    1, 0.888889
    34, 'BUS 34      ',        45, 1,    1,    1, 1,  0.94194428, -9.10370635,    1, 0.888889,    1, 0.888889
    35, 'BUS 35      ',        63, 1,    1,    1, 1,  1.02086428, -18.2068976, 1.06349, 0.968254, 1.06349, 0.968254
    36, 'BUS 36      ',        45, 1,    1,    1, 1, 0.974471963, -12.2688461,    1, 0.888889,    1, 0.888889
    37, 'BUS 37      ',        63, 1,    1,    1, 1, 0.996883091, -16.0858104, 1.06349, 0.936508, 1.06349, 0.936508
    38, 'BUS 38      ',        63, 2,    1,    1, 1,       1.036, -12.7572317, 1.07937, 0.952381, 1.07937, 0.952381
    39, 'BUS 39      ',       225, 1,    1,    1, 1,  1.04880949, -12.8596939, 1.08934, 0.986667, 1.08934, 0.986667
    40, 'BUS 40      ',       225, 1,    1,    1, 1,  1.06143677, -12.0055618, 1.08889, 0.888889, 1.08889, 0.888889
    41, 'BUS 41      ',       225, 1,    1,    1, 1,  1.05307427, -28.0690398, 1.08444,    1, 1.08444,    1
    42, 'BUS 42      ',        63, 1,    1,    1, 1,  1.02349613, -14.0643108, 1.0637, 0.936508, 1.0637, 0.936508
    43, 'BUS 43      ',       225, 1,    1,    1, 1,  1.04400425, -11.7772435, 1.08889, 0.933333, 1.08889, 0.933333
    44, 'BUS 44      ',        63, 1,    1,    1, 1,  1.02695311, -18.1849839, 1.06349, 0.968254, 1.06349, 0.968254
    45, 'BUS 45      ',       225, 1,    1,    1, 1,  1.05508118, -18.6863905, 1.08889,    1, 1.08889,    1
    46, 'BUS 46      ',       380, 1,    1,    1, 1,  1.08899996, -4.50903487, 1.10526,    1, 1.10526,    1
  2575, 'BUS 2575    ',       380, 1,    1,    1, 1,  1.08899763,  -4.5052882, 1.10526,    1, 1.10526,    1
    47, 'BUS 47      ',        63, 1,    1,    1, 1,  1.02924994, -11.0032309, 1.06606, 0.936508, 1.06606, 0.936508
    48, 'BUS 48      ',        63, 1,    1,    1, 1,   1.0380023, -15.0627934, 1.06735, 0.936508, 1.06735, 0.936508
    49, 'BUS 49      ',        63, 1,    1,    1, 1,  1.04449377, -10.7690362, 1.06349, 0.968254, 1.06349, 0.968254
  2576, 'BUS 2576    ',        63, 1,    1,    1, 1,  1.04213976, -11.5674386, 1.06349, 0.968254, 1.06349, 0.968254
    50, 'BUS 50      ',       225, 1,    1,    1, 1,  1.07524181, -8.92969468, 1.08444,    1, 1.08444,    1
    51, 'BUS 51      ',       225, 1,    1,    1, 1,  1.07080154, -14.9322226, 1.08444,    1, 1.08444,    1
    52, 'BUS 52      ',       225, 1,    1,    1, 1,  1.07543395, -21.9585367, 1.08889,    1, 1.08889,    1
  2942, 'BUS 2942    ',       225, 1,    1,    1, 1,  1.03656994, -20.8860482, 1.08889,    1, 1.08889,    1
    53, 'BUS 53      ',        63, 2,    1,    1, 1,  1.03967305, -11.2114832, 1.06349, 0.968254, 1.06349, 0.968254
    54, 'BUS 54      ',       150, 1,    1,    1, 1,  1.06904972, -11.0690101, 1.08, 0.966667, 1.08, 0.966667
    55, 'BUS 55      ',       225, 1,    1,    1, 1,  1.02277092, -7.31812106, 1.09459,    1, 1.09459,    1
    56, 'BUS 56      ',       380, 1,    1,    1, 1,  1.03724147, -4.57515341, 1.10526,    1, 1.10526,    1
    57, 'BUS 57      ',       225, 1,    1,    1, 1,  1.02124002, -17.7251591, 1.08889, 0.986667, 1.08889, 0.986667
    59, 'BUS 59      ',       225, 1,    1,    1, 1,  1.07954393, -10.2093798, 1.08889, 0.968889, 1.08889, 0.968889
    60, 'BUS 60      ',       380, 1,    1,    1, 1,  1.08484514, -8.00388709, 1.10526,    1, 1.10526,    1
    61, 'BUS 61      ',        63, 1,    1,    1, 1,  1.03128173, -15.4711978, 1.06349, 0.936508, 1.06349, 0.936508
    63, 'BUS 63      ',        63, 1,    1,    1, 1,  1.00933558, -20.0679804, 1.06349, 0.968254, 1.06349, 0.968254
  2577, 'BUS 2577    ',        63, 1,    1,    1, 1,  1.00934424, -21.3334173, 1.06349, 0.968254, 1.06349, 0.968254
    64, 'BUS 64      ',       225, 1,    1,    1, 1,  1.05276128, -12.6446356, 1.08889, 0.933333, 1.08889, 0.933333
    65, 'BUS 65      ',        63, 1,    1,    1, 1,  1.00931717, -21.3374383, 1.06349, 0.968254, 1.06349, 0.968254
    66, 'BUS 66      ',        45, 1,    1,    1, 1,  0.92175763, -13.4339467,    1, 0.888889,    1, 0.888889
  2578, 'BUS 2578    ',        45, 2,    1,    1, 1,       0.958, -13.3407261,    1, 0.888889,    1, 0.888889
    67, 'BUS 67      ',       225, 1,    1,    1, 1,  1.06670888, -10.8411748, 1.08889, 0.888889, 1.08889, 0.888889
  2579, 'BUS 2579    ',       225, 1,    1,    1, 1,  1.06690256,  -10.835916, 1.08889, 0.888889, 1.08889, 0.888889
    68, 'BUS 68      ',        20, 1,    1,    1, 1,  1.06949128,  -18.381187,  1.2,  0.8,  1.2,  0.8
    69, 'BUS 69      ',       225, 1,    1,    1, 1,  1.06953469, -18.3731259, 1.08685,    1, 1.08685,    1
    70, 'BUS 70      ',       225, 1,    1,    1, 1,  1.06893349, -20.6667868, 1.08889,    1, 1.08889,    1
    71, 'BUS 71      ',       150, 2,    1,    1, 1,       1.091, -12.4948451, 1.10885,  0.9, 1.10885,  0.9
    72, 'BUS 72      ',       225, 1,    1,    1, 1,   1.0487681, -20.6337343, 1.08889,    1, 1.08889,    1
  2580, 'BUS 2580    ',       225, 1,    1,    1, 1,  1.04876788, -20.6337331, 1.08889,    1, 1.08889,    1
    74, 'BUS 74      ',       225, 1,    1,    1, 1,  1.04876663, -20.6337262, 1.08889,    1, 1.08889,    1
    75, 'BUS 75      ',        63, 1,    1,    1, 1,  1.02954269, -12.5232602, 1.06349, 0.936508, 1.06349, 0.936508
    76, 'BUS 76      ',        45, 2,    1,    1, 1,       0.936, -9.18763306,    1, 0.888889,    1, 0.888889
    77, 'BUS 77      ',        63, 1,    1,    1, 1,  1.03543542, -16.1086493, 1.08481, 0.920635, 1.08481, 0.920635
    78, 'BUS 78      ',       225, 1,    1,    1, 1,  1.05502862, -19.2480453, 1.08889,    1, 1.08889,    1
    79, 'BUS 79      ',        63, 1,    1,    1, 1,  1.00754108, -27.4814562, 1.07937, 0.920635, 1.07937, 0.920635
    80, 'BUS 80      ',        63, 1,    1,    1, 1, 0.995772648, -19.1831462, 1.08744, 0.920635, 1.08744, 0.920635
    81, 'BUS 81      ',       225, 1,    1,    1, 1,   1.0440276,  -17.359702, 1.08889,    1, 1.08889,    1
    82, 'BUS 82      ',       225, 1,    1,    1, 1,  1.05795939, -12.3730191, 1.08889, 0.888889, 1.08889, 0.888889
    83, 'BUS 83      ',        63, 1,    1,    1, 1, 0.997900327, -25.7645007, 1.06349, 0.967399, 1.06349, 0.967399
    84, 'BUS 84      ',       225, 1,    1,    1, 1,  1.07048844, -7.92331607, 1.08889, 0.968889, 1.08889, 0.968889
    85, 'BUS 85      ',       380, 1,    1,    1, 1,  1.08605073, -4.78732009, 1.10526,    1, 1.10526,    1
    86, 'BUS 86      ',        63, 1,    1,    1, 1,  1.00724259, -23.3698198, 1.06349, 0.968254, 1.06349, 0.968254
    87, 'BUS 87      ',        63, 1,    1,    1, 1, 0.993796119, -13.6335423, 1.06349, 0.968254, 1.06349, 0.968254
    88, 'BUS 88      ',        63, 1,    1,    1, 1,  1.02834157, -16.4283637, 1.06349, 0.968254, 1.06349, 0.968254
    89, 'BUS 89      ',        63, 1,    1,    1, 1,  1.02175873, -14.0720657, 1.06349, 0.968254, 1.06349, 0.968254
  2581, 'BUS 2581    ',        63, 1,    1,    1, 1,  1.02212915, -13.8487246, 1.06349, 0.968254, 1.06349, 0.968254
    90, 'BUS 90      ',       225, 1,    1,    1, 1,  1.06765662, -13.7777708, 1.08444,    1, 1.08444,    1
  2582, 'BUS 2582    ',       225, 1,    1,    1, 1,  1.06760338,  -13.807522, 1.08444,    1, 1.08444,    1
    91, 'BUS 91      ',       225, 1,    1,    1, 1,   1.0609556, -20.2843633, 1.08889,    1, 1.08889,    1
    92, 'BUS 92      ',       225, 1,    1,    1, 1,  1.06964778, -10.0034274, 1.09041, 0.933333, 1.09041, 0.933333
    93, 'BUS 93      ',       150, 2,    1,    1, 1,  1.09047512, -12.5519577, 1.10907,  0.9, 1.10907,  0.9
    94, 'BUS 94      ',       225, 1,    1,    1, 1,  1.07939534, -12.9106011, 1.08444,    1, 1.08444,    1
  2583, 'BUS 2583    ',       225, 1,    1,    1, 1,  1.08021703, -12.9173291, 1.08444,    1, 1.08444,    1
    95, 'BUS 95      ',       225, 1,    1,    1, 1,  1.07839122, -13.2249988, 1.08889, 0.977778, 1.08889, 0.977778
    96, 'BUS 96      ',       225, 1,    1,    1, 1,   1.0615075, -11.1187178, 1.08889, 0.888889, 1.08889, 0.888889
    97, 'BUS 97      ',        63, 1,    1,    1, 1,  1.00685807, -21.6222117, 1.06349, 0.968254, 1.06349, 0.968254
    98, 'BUS 98      ',       225, 1,    1,    1, 1,  1.05224889, -10.2497723, 1.08889, 0.933333, 1.08889, 0.933333
    99, 'BUS 99      ',       225, 1,    1,    1, 1,  1.06121608, -20.8488846, 1.08889,    1, 1.08889,    1
  2584, 'BUS 2584    ',       225, 1,    1,    1, 1,  1.06715039, -19.6241436, 1.08889,    1, 1.08889,    1
   100, 'BUS 100     ',       225, 1,    1,    1, 1,  1.04357054, -17.5525378, 1.08889,    1, 1.08889,    1
   101, 'BUS 101     ',       225, 1,    1,    1, 1,  1.06339988, -13.9006632, 1.08889, 0.986667, 1.08889, 0.986667
   102, 'BUS 102     ',       225, 1,    1,    1, 1,  1.07290192, -10.5578661, 1.08889, 0.888889, 1.08889, 0.888889
  2585, 'BUS 2585    ',       225, 1,    1,    1, 1,  1.06406579, -11.4221677, 1.08889, 0.888889, 1.08889, 0.888889
   103, 'BUS 103     ',       380, 1,    1,    1, 1,  1.07695363, -7.11066132, 1.10526,    1, 1.10526,    1
   104, 'BUS 104     ',       225, 1,    1,    1, 1,   1.0501149, -20.7221334, 1.08889,    1, 1.08889,    1
  2586, 'BUS 2586    ',       225, 1,    1,    1, 1,  1.06454398, -19.7362121, 1.08889,    1, 1.08889,    1
   105, 'BUS 105     ',        63, 1,    1,    1, 1,  1.00103775, -16.9248584, 1.07937, 0.920635, 1.07937, 0.920635
   106, 'BUS 106     ',       225, 1,    1,    1, 1,  1.06901319, -10.0460515, 1.08889, 0.977778, 1.08889, 0.977778
  2587, 'BUS 2587    ',       225, 1,    1,    1, 1,  1.06901999, -10.0459566, 1.08889, 0.977778, 1.08889, 0.977778
   107, 'BUS 107     ',        63, 1,    1,    1, 1,  1.03757067, -14.1962729, 1.06349, 0.968254, 1.06349, 0.968254
   108, 'BUS 108     ',       225, 1,    1,    1, 1,  1.06695524, -10.7581791, 1.08444,    1, 1.08444,    1
   109, 'BUS 109     ',       225, 1,    1,    1, 1,  1.07658268, -14.0193555, 1.08444,    1, 1.08444,    1
   110, 'BUS 110     ',       380, 1,    1,    1, 1,  1.09331748, -8.28931693, 1.10263,    1, 1.10263,    1
   111, 'BUS 111     ',       225, 1,    1,    1, 1,  1.07626914, -14.0756991, 1.08444,    1, 1.08444,    1
   112, 'BUS 112     ',       225, 1,    1,    1, 1,  1.06928796, -19.2036147, 1.09035,    1, 1.09035,    1
  2588, 'BUS 2588    ',       225, 1,    1,    1, 1,  1.06925164, -19.2134954, 1.09035,    1, 1.09035,    1
   113, 'BUS 113     ',       225, 1,    1,    1, 1,   1.0819927, -4.56327751, 1.08889, 0.888889, 1.08889, 0.888889
   114, 'BUS 114     ',        63, 1,    1,    1, 1,  1.02384974, -16.6455425, 1.06349, 0.936508, 1.06349, 0.936508
   115, 'BUS 115     ',       225, 1,    1,    1, 1,   1.0690746, -11.5058425, 1.08889, 0.888889, 1.08889, 0.888889
   116, 'BUS 116     ',       225, 1,    1,    1, 1,  1.07288681, -6.70235687, 1.08889, 0.888889, 1.08889, 0.888889
   117, 'BUS 117     ',        63, 1,    1,    1, 1,  1.01221849, -13.8566616, 1.06349, 0.968254, 1.06349, 0.968254
   118, 'BUS 118     ',        63, 1,    1,    1, 1, 0.984057863, -29.8904038, 1.07937, 0.920635, 1.07937, 0.920635
   119, 'BUS 119     ',        63, 1,    1,    1, 1,  1.02675218, -21.3609643, 1.06349, 0.968254, 1.06349, 0.968254
   120, 'BUS 120     ',        63, 2,    1,    1, 1,       1.049,  -15.058726, 1.06863, 0.936508, 1.06863, 0.936508
   121, 'BUS 121     ',        63, 1,    1,    1, 1,  1.02653722, -25.5795491, 1.06349, 0.968254, 1.06349, 0.968254
  2589, 'BUS 2589    ',        63, 1,    1,    1, 1,  1.02659968, -25.6110124, 1.06349, 0.968254, 1.06349, 0.968254
   122, 'BUS 122     ',       225, 1,    1,    1, 1,  1.05285733,  -12.506156, 1.08889,    1, 1.08889,    1
   123, 'BUS 123     ',        63, 1,    1,    1, 1,  1.01316225, -23.5029903, 1.07937, 0.920635, 1.07937, 0.920635
   124, 'BUS 124     ',        63, 2,    1,    1, 1,  1.03095395, -17.0573027, 1.08203, 0.920635, 1.08203, 0.920635
   125, 'BUS 125     ',        63, 1,    1,    1, 1,   1.0336739, -21.4763796, 1.07937, 0.920635, 1.07937, 0.920635
   126, 'BUS 126     ',       225, 1,    1,    1, 1,   1.0233504, -12.9463589, 1.08889,    1, 1.08889,    1
   127, 'BUS 127     ',       380, 1,    1,    1, 1,    1.061739, -12.9611097, 1.10526,    1, 1.10526,    1
   128, 'BUS 128     ',        63, 1,    1,    1, 1,  1.03631833, -13.1986143, 1.06349, 0.936508, 1.06349, 0.936508
   129, 'BUS 129     ',        63, 2,    1,    1, 1,  1.02632529, -15.7888272, 1.06349, 0.936508, 1.06349, 0.936508
   130, 'BUS 130     ',        63, 1,    1,    1, 1,  1.04663197, -17.5668721, 1.07937, 0.920635, 1.07937, 0.920635
  2955, 'BUS 2955    ',        63, 1,    1,    1, 1,   1.0227956, -19.8618164, 1.07937, 0.920635, 1.07937, 0.920635
   131, 'BUS 131     ',       225, 1,    1,    1, 1,   1.0527202, -15.6919249, 1.08889,    1, 1.08889,    1
   132, 'BUS 132     ',       225, 1,    1,    1, 1,  1.04578364, -17.0663527, 1.08889,    1, 1.08889,    1
   133, 'BUS 133     ',        63, 2,    1,    1, 1,       1.008, -29.2069551, 1.06538, 0.968254, 1.06538, 0.968254
   134, 'BUS 134     ',       150, 2,    1,    1, 1,  1.00881558, -21.5295796, 1.08, 0.966667, 1.08, 0.966667
   135, 'BUS 135     ',        63, 2,    1,    1, 1,  1.02936073, -19.2981863, 1.07937, 0.920635, 1.07937, 0.920635
   136, 'BUS 136     ',       225, 1,    1,    1, 1,  1.04827941, -12.3656357, 1.08889, 0.986667, 1.08889, 0.986667
   137, 'BUS 137     ',        63, 1,    1,    1, 1,   1.0198151, -13.6526439, 1.06349, 0.968254, 1.06349, 0.968254
   138, 'BUS 138     ',       225, 1,    1,    1, 1,  1.06116318, -8.64980177, 1.08444,    1, 1.08444,    1
   140, 'BUS 140     ',       380, 1,    1,    1, 1,  1.09861059, -3.91680983, 1.10526,    1, 1.10526,    1
  2590, 'BUS 2590    ',       380, 1,    1,    1, 1,  1.09940833, -3.83524305, 1.10526,    1, 1.10526,    1
   141, 'BUS 141     ',       225, 1,    1,    1, 1,  1.05545215, -11.2719939, 1.08889,    1, 1.08889,    1
   142, 'BUS 142     ',       225, 1,    1,    1, 1,  1.06626653, -16.3570817, 1.08889,    1, 1.08889,    1
   143, 'BUS 143     ',        63, 1,    1,    1, 1,  1.01995095, -21.3560134, 1.06349, 0.968254, 1.06349, 0.968254
   144, 'BUS 144     ',       150, 1,    1,    1, 1,    1.075666, -15.3110955,  1.1,  0.9,  1.1,  0.9
   145, 'BUS 145     ',       225, 1,    1,    1, 1,  1.04693974,  -13.700896, 1.08925,    1, 1.08925,    1
   146, 'BUS 146     ',       225, 2,    1,    1, 1,       1.051, -20.5356037, 1.08889,    1, 1.08889,    1
   147, 'BUS 147     ',       225, 1,    1,    1, 1,  1.04733528, -10.4089217, 1.08889, 0.933333, 1.08889, 0.933333
   148, 'BUS 148     ',       380, 1,    1,    1, 1,  1.06293868, -10.0930426, 1.10526,    1, 1.10526,    1
  2591, 'BUS 2591    ',       380, 1,    1,    1, 1,  1.05707552, -10.5433047, 1.10526,    1, 1.10526,    1
   149, 'BUS 149     ',       225, 1,    1,    1, 1,  1.07473471, -22.1074766, 1.08889,    1, 1.08889,    1
  2592, 'BUS 2592    ',       225, 1,    1,    1, 1,   1.0347394, -21.1306766, 1.08889,    1, 1.08889,    1
   150, 'BUS 150     ',       225, 1,    1,    1, 1,  1.02224417, -11.0332254, 1.08889, 0.986667, 1.08889, 0.986667
   151, 'BUS 151     ',       225, 1,    1,    1, 1,  1.07455824, -22.1203835, 1.08889,    1, 1.08889,    1
   153, 'BUS 153     ',       225, 1,    1,    1, 1,  1.02980033, -10.4231277, 1.08889, 0.933333, 1.08889, 0.933333
   154, 'BUS 154     ',       380, 1,    1,    1, 1,  1.06626964, -7.13788385, 1.10526,    1, 1.10526,    1
   155, 'BUS 155     ',       225, 1,    1,    1, 1,  1.05850973, -10.6112512, 1.08889,    1, 1.08889,    1
   156, 'BUS 156     ',        63, 1,    1,    1, 1,  1.04464819, -16.3219945, 1.06503, 0.936508, 1.06503, 0.936508
   157, 'BUS 157     ',        63, 1,    1,    1, 1,  1.03564222, -14.6858502, 1.06349, 0.968254, 1.06349, 0.968254
   158, 'BUS 158     ',        63, 1,    1,    1, 1,  1.01640934, -21.2022009, 1.07937, 0.920635, 1.07937, 0.920635
   159, 'BUS 159     ',        63, 1,    1,    1, 1,   1.0065889, -23.9976681, 1.06349, 0.968254, 1.06349, 0.968254
   160, 'BUS 160     ',        63, 1,    1,    1, 1,  1.01781991,  -17.888386, 1.06349, 0.936508, 1.06349, 0.936508
   161, 'BUS 161     ',        63, 2,    1,    1, 1, 0.997372449, -21.1158526, 1.15,  0.8, 1.15,  0.8
   162, 'BUS 162     ',       225, 1,    1,    1, 1,   1.0724193, -19.7796414, 1.09053,    1, 1.09053,    1
   163, 'BUS 163     ',        63, 1,    1,    1, 1,  1.01942021, -31.2100473, 1.06349, 0.968254, 1.06349, 0.968254
   164, 'BUS 164     ',       225, 1,    1,    1, 1,   1.0439638, -11.5860344, 1.09791,    1, 1.09791,    1
   165, 'BUS 165     ',       225, 1,    1,    1, 1,  1.05303584, -8.53297324, 1.08889, 0.986667, 1.08889, 0.986667
   166, 'BUS 166     ',        63, 1,    1,    1, 1,  1.03235274, -16.7482068, 1.06349, 0.968254, 1.06349, 0.968254
   167, 'BUS 167     ',       225, 1,    1,    1, 1,  1.06118842,  -20.807027, 1.09067,    1, 1.09067,    1
   168, 'BUS 168     ',        63, 1,    1,    1, 1,   1.0076754,  -16.301367, 1.06349, 0.936508, 1.06349, 0.936508
   169, 'BUS 169     ',        63, 1,    1,    1, 1,   1.0124195, -16.0049382, 1.06349, 0.968254, 1.06349, 0.968254
   170, 'BUS 170     ',        63, 1,    1,    1, 1,  1.03162859, -15.9797699, 1.06822, 0.936508, 1.06822, 0.936508
   171, 'BUS 171     ',       225, 1,    1,    1, 1,  1.05497058, -12.8212795, 1.08889, 0.924444, 1.08889, 0.924444
   172, 'BUS 172     ',        63, 2,    1,    1, 1,    0.995015, -12.2363058, 1.06349, 0.968254, 1.06349, 0.968254
   173, 'BUS 173     ',       225, 1,    1,    1, 1,  1.08898655, -2.73327438, 1.09616, 0.986667, 1.09616, 0.986667
   174, 'BUS 174     ',       380, 1,    1,    1, 1,  1.09568901, -1.70247243, 1.10526,    1, 1.10526,    1
  2998, 'BUS 2998    ',       380, 1,    1,    1, 1,  1.09658913, -1.16129964, 1.10526,    1, 1.10526,    1
   175, 'BUS 175     ',       225, 1,    1,    1, 1,   1.0660945, -23.1480029, 1.08444,    1, 1.08444,    1
   177, 'BUS 177     ',        63, 1,    1,    1, 1, 0.970410004, -27.7752476, 1.06349, 0.960855, 1.06349, 0.960855
   178, 'BUS 178     ',       225, 1,    1,    1, 1,  1.05671877, -26.7198436, 1.08444,    1, 1.08444,    1
   179, 'BUS 179     ',       380, 1,    1,    1, 1,    1.052746, -23.9394857, 1.10263,    1, 1.10263,    1
   180, 'BUS 180     ',       225, 1,    1,    1, 1,   1.0297866, -10.4512216, 1.08889, 0.933333, 1.08889, 0.933333
   181, 'BUS 181     ',        45, 1,    1,    1, 1, 0.979322683, -9.47678764, 1.01652, 0.888889, 1.01652, 0.888889
   182, 'BUS 182     ',        63, 1,    1,    1, 1,  1.03156899, -15.4353561, 1.06349, 0.936508, 1.06349, 0.936508
...
0 / END OF BUS DATA, BEGIN LOAD DATA
     1,  1, 1,    1,    1,     -18.5,         0, 0, 0, 0, 0, 1, 1, 0
     2,  1, 1,    1,    1,      11.8,       0.6, 0, 0, 0, 0, 1, 1, 0
     5,  1, 1,    1,    1,       0.2,      -0.2, 0, 0, 0, 0, 1, 1, 0
     6,  1, 1,    1,    1,       5.6,       -19, 0, 0, 0, 0, 1, 1, 0
     7,  1, 1,    1,    1,     223.6,       7.6, 0, 0, 0, 0, 1, 1, 0
     8,  1, 1,    1,    1,      68.6,       7.6, 0, 0, 0, 0, 1, 1, 0
    11,  1, 1,    1,    1,      49.1,       0.9, 0, 0, 0, 0, 1, 1, 0
  2571,  1, 1,    1,    1,        34,      14.4, 0, 0, 0, 0, 1, 1, 0
    14,  1, 1,    1,    1,       0.2,      -1.1, 0, 0, 0, 0, 1, 1, 0
    15,  1, 1,    1,    1,      10.3,      -0.2, 0, 0, 0, 0, 1, 1, 0
    16,  1, 1,    1,    1,     189.8,      54.4, 0, 0, 0, 0, 1, 1, 0
    17,  1, 1,    1,    1,      54.5,      13.1, 0, 0, 0, 0, 1, 1, 0
    18,  1, 1,    1,    1,      67.6,      23.2, 0, 0, 0, 0, 1, 1, 0
    20,  1, 1,    1,    1,     150.5,        40, 0, 0, 0, 0, 1, 1, 0
    21,  1, 1,    1,    1,      78.1,       6.2, 0, 0, 0, 0, 1, 1, 0
    22,  1, 1,    1,    1,        15,      -9.4, 0, 0, 0, 0, 1, 1, 0
    23,  1, 1,    1,    1,      50.9,         6, 0, 0, 0, 0, 1, 1, 0
    25,  1, 1,    1,    1,      65.1,       1.6, 0, 0, 0, 0, 1, 1, 0
    26,  1, 1,    1,    1,       1.6,      -4.2, 0, 0, 0, 0, 1, 1, 0
    27,  1, 1,    1,    1,      42.8,       2.3, 0, 0, 0, 0, 1, 1, 0
    28,  1, 1,    1,    1,      39.4,      15.5, 0, 0, 0, 0, 1, 1, 0
  2574,  1, 1,    1,    1,      42.2,      12.4, 0, 0, 0, 0, 1, 1, 0
    29,  1, 1,    1,    1,      11.4,       0.5, 0, 0, 0, 0, 1, 1, 0
    30,  1, 1,    1,    1,      72.7,      36.5, 0, 0, 0, 0, 1, 1, 0
    31,  1, 1,    1,    1,       2.7,      -1.4, 0, 0, 0, 0, 1, 1, 0
    32,  1, 1,    1,    1,      13.8,      -0.4, 0, 0, 0, 0, 1, 1, 0
    33,  1, 1,    1,    1,         2,      -0.5, 0, 0, 0, 0, 1, 1, 0
    34,  1, 1,    1,    1,       0.4,         0, 0, 0, 0, 0, 1, 1, 0
    35,  1, 1,    1,    1,      30.4,         3, 0, 0, 0, 0, 1, 1, 0
    36,  1, 1,    1,    1,       1.9,      -3.1, 0, 0, 0, 0, 1, 1, 0
    37,  1, 1,    1,    1,      18.9,       0.9, 0, 0, 0, 0, 1, 1, 0
    39,  1, 1,    1,    1,      99.3,      18.8, 0, 0, 0, 0, 1, 1, 0
    40,  1, 1,    1,    1,      38.7,       0.9, 0, 0, 0, 0, 1, 1, 0
    41,  1, 1,    1,    1,      89.8,        13, 0, 0, 0, 0, 1, 1, 0
    42,  1, 1,    1,    1,      63.9,       9.7, 0, 0, 0, 0, 1, 1, 0
    44,  1, 1,    1,    1,      33.1,      -6.5, 0, 0, 0, 0, 1, 1, 0
    45,  1, 1,    1,    1,     168.4,      34.9, 0, 0, 0, 0, 1, 1, 0
    47,  1, 1,    1,    1,      29.5,       4.5, 0, 0, 0, 0, 1, 1, 0
    48,  1, 1,    1,    1,       1.6,         0, 0, 0, 0, 0, 1, 1, 0
    49,  1, 1,    1,    1,      14.9,      10.4, 0, 0, 0, 0, 1, 1, 0
  2576,  1, 1,    1,    1,       9.9,       7.2, 0, 0, 0, 0, 1, 1, 0
    51,  1, 1,    1,    1,     114.9,      20.2, 0, 0, 0, 0, 1, 1, 0
  2942,  1, 1,    1,    1,       106,      29.6, 0, 0, 0, 0, 1, 1, 0
    53,  1, 1,    1,    1,       5.7,      -6.6, 0, 0, 0, 0, 1, 1, 0
    55,  1, 1,    1,    1,      65.6,        18, 0, 0, 0, 0, 1, 1, 0
    57,  1, 1,    1,    1,     146.4,      39.1, 0, 0, 0, 0, 1, 1, 0
    59,  1, 1,    1,    1,      78.7,      21.1, 0, 0, 0, 0, 1, 1, 0
    60,  1, 1,    1,    1,     125.2,      37.6, 0, 0, 0, 0, 1, 1, 0
    61,  1, 1,    1,    1,         6,         1, 0, 0, 0, 0, 1, 1, 0
    63,  1, 1,    1,    1,      36.1,       4.7, 0, 0, 0, 0, 1, 1, 0
    64,  1, 1,    1,    1,      53.3,      13.4, 0, 0, 0, 0, 1, 1, 0
    66,  1, 1,    1,    1,      43.4,      -0.7, 0, 0, 0, 0, 1, 1, 0
    67,  1, 1,    1,    1,      41.3,      12.8, 0, 0, 0, 0, 1, 1, 0
  2579,  1, 1,    1,    1,      38.5,       8.5, 0, 0, 0, 0, 1, 1, 0
    68,  1, 1,    1,    1,      19.6,       3.7, 0, 0, 0, 0, 1, 1, 0
    69,  1, 1,    1,    1,     320.7,      74.9, 0, 0, 0, 0, 1, 1, 0
    70,  1, 1,    1,    1,     140.9,     -22.3, 0, 0, 0, 0, 1, 1, 0
    75,  1, 1,    1,    1,      15.6,         3, 0, 0, 0, 0, 1, 1, 0
    77,  1, 1,    1,    1,       6.4,       0.3, 0, 0, 0, 0, 1, 1, 0
    78,  1, 1,    1,    1,       4.8,       2.4, 0, 0, 0, 0, 1, 1, 0
    79,  1, 1,    1,    1,      17.4,       1.7, 0, 0, 0, 0, 1, 1, 0
    80,  1, 1,    1,    1,        10,      -0.6, 0, 0, 0, 0, 1, 1, 0
    82,  1, 1,    1,    1,      63.1,      25.3, 0, 0, 0, 0, 1, 1, 0
    83,  1, 1,    1,    1,      44.1,       1.9, 0, 0, 0, 0, 1, 1, 0
    84,  1, 1,    1,    1,     162.3,      51.1, 0, 0, 0, 0, 1, 1, 0
    86,  1, 1,    1,    1,      58.3,      14.1, 0, 0, 0, 0, 1, 1, 0
    87,  1, 1,    1,    1,      32.5,       4.6, 0, 0, 0, 0, 1, 1, 0
    88,  1, 1,    1,    1,       1.5,       0.7, 0, 0, 0, 0, 1, 1, 0
    89,  1, 1,    1,    1,      55.7,       8.3, 0, 0, 0, 0, 1, 1, 0
  2581,  1, 1,    1,    1,      30.1,      12.2, 0, 0, 0, 0, 1, 1, 0
    91,  1, 1,    1,    1,     190.1,         8, 0, 0, 0, 0, 1, 1, 0
    92,  1, 1,    1,    1,      36.8,      -8.5, 0, 0, 0, 0, 1, 1, 0
    94,  1, 1,    1,    1,      35.7,      55.7, 0, 0, 0, 0, 1, 1, 0
  2583,  1, 1,    1,    1,        34,       3.2, 0, 0, 0, 0, 1, 1, 0
    96,  1, 1,    1,    1,      15.9,       4.1, 0, 0, 0, 0, 1, 1, 0
    97,  1, 1,    1,    1,      40.4,       6.5, 0, 0, 0, 0, 1, 1, 0
    98,  1, 1,    1,    1,      -3.5,      -1.6, 0, 0, 0, 0, 1, 1, 0
    99,  1, 1,    1,    1,      18.2,       5.5, 0, 0, 0, 0, 1, 1, 0
  2584,  1, 1,    1,    1,      33.2,      14.1, 0, 0, 0, 0, 1, 1, 0
   100,  1, 1,    1,    1,     -17.2,      -4.3, 0, 0, 0, 0, 1, 1, 0
   101,  1, 1,    1,    1,      24.4,       1.9, 0, 0, 0, 0, 1, 1, 0
   104,  1, 1,    1,    1,      74.9,      14.3, 0, 0, 0, 0, 1, 1, 0
  2586,  1, 1,    1,    1,        29,       6.8, 0, 0, 0, 0, 1, 1, 0
   105,  1, 1,    1,    1,      11.4,       9.2, 0, 0, 0, 0, 1, 1, 0
   107,  1, 1,    1,    1,       5.7,      10.3, 0, 0, 0, 0, 1, 1, 0
   108,  1, 1,    1,    1,      54.1,       1.9, 0, 0, 0, 0, 1, 1, 0
   111,  1, 1,    1,    1,     103.3,        18, 0, 0, 0, 0, 1, 1, 0
   112,  1, 1,    1,    1,      -1.5,       2.2, 0, 0, 0, 0, 1, 1, 0
  2588,  1, 1,    1,    1,      16.5,      -0.1, 0, 0, 0, 0, 1, 1, 0
   113,  1, 1,    1,    1,        47,       9.8, 0, 0, 0, 0, 1, 1, 0
   114,  1, 1,    1,    1,      43.8,       0.6, 0, 0, 0, 0, 1, 1, 0
   115,  1, 1,    1,    1,      16.4,       1.2, 0, 0, 0, 0, 1, 1, 0
   116,  1, 1,    1,    1,      56.9,      18.9, 0, 0, 0, 0, 1, 1, 0
   117,  1, 1,    1,    1,       3.2,       0.4, 0, 0, 0, 0, 1, 1, 0
   118,  1, 1,    1,    1,        44,        10, 0, 0, 0, 0, 1, 1, 0
   119,  1, 1,    1,    1,      28.5,      -5.1, 0, 0, 0, 0, 1, 1, 0
   121,  1, 1,    1,    1,       8.5,       3.1, 0, 0, 0, 0, 1, 1, 0
  2589,  1, 1,    1,    1,        15,       6.8, 0, 0, 0, 0, 1, 1, 0
   122,  1, 1,    1,    1,     142.7,     -26.6, 0, 0, 0, 0, 1, 1, 0
   123,  1, 1,    1,    1,      32.4,       7.9, 0, 0, 0, 0, 1, 1, 0
   124,  1, 1,    1,    1,       4.7,        -2, 0, 0, 0, 0, 1, 1, 0
   128,  1, 1,    1,    1,      26.4,       3.8, 0, 0, 0, 0, 1, 1, 0
   129,  1, 1,    1,    1,      16.3,       7.5, 0, 0, 0, 0, 1, 1, 0
   130,  1, 1,    1,    1,      10.9,      16.3, 0, 0, 0, 0, 1, 1, 0
   132,  1, 1,    1,    1,     139.1,        40, 0, 0, 0, 0, 1, 1, 0
   133,  1, 1,    1,    1,       9.2,       3.6, 0, 0, 0, 0, 1, 1, 0
   135,  1, 1,    1,    1,     -14.9,      -4.8, 0, 0, 0, 0, 1, 1, 0
   136,  1, 1,    1,    1,      31.7,      10.2, 0, 0, 0, 0, 1, 1, 0
   137,  1, 1,    1,    1,       9.7,      -2.1, 0, 0, 0, 0, 1, 1, 0
   138,  1, 1,    1,    1,      12.8,       5.8, 0, 0, 0, 0, 1, 1, 0
   141,  1, 1,    1,    1,      20.8,       1.1, 0, 0, 0, 0, 1, 1, 0
   142,  1, 1,    1,    1,      10.3,       9.6, 0, 0, 0, 0, 1, 1, 0
   143,  1, 1,    1,    1,      28.7,       2.3, 0, 0, 0, 0, 1, 1, 0
   144,  1, 1,    1,    1,      82.9,      11.1, 0, 0, 0, 0, 1, 1, 0
   145,  1, 1,    1,    1,      72.9,       0.2, 0, 0, 0, 0, 1, 1, 0
   146,  1, 1,    1,    1,      -3.7,      -0.5, 0, 0, 0, 0, 1, 1, 0
  2592,  1, 1,    1,    1,      66.1,      19.5, 0, 0, 0, 0, 1, 1, 0
   151,  1, 1,    1,    1,        24,       9.7, 0, 0, 0, 0, 1, 1, 0
   153,  1, 1,    1,    1,     137.1,      23.1, 0, 0, 0, 0, 1, 1, 0
   155,  1, 1,    1,    1,      55.3,      18.4, 0, 0, 0, 0, 1, 1, 0
   156,  1, 1,    1,    1,      30.9,       4.2, 0, 0, 0, 0, 1, 1, 0
   157,  1, 1,    1,    1,       2.4,       0.4, 0, 0, 0, 0, 1, 1, 0
   158,  1, 1,    1,    1,      27.5,       2.2, 0, 0, 0, 0, 1, 1, 0
   159,  1, 1,    1,    1,      24.3,       1.9, 0, 0, 0, 0, 1, 1, 0
   160,  1, 1,    1,    1,       5.6,         3, 0, 0, 0, 0, 1, 1, 0
   162,  1, 1,    1,    1,       0.5,     -40.5, 0, 0, 0, 0, 1, 1, 0
   164,  1, 1,    1,    1,     109.3,      -1.7, 0, 0, 0, 0, 1, 1, 0
   165,  1, 1,    1,    1,     187.3,      17.6, 0, 0, 0, 0, 1, 1, 0
   166,  1, 1,    1,    1,      51.6,       6.2, 0, 0, 0, 0, 1, 1, 0
   167,  1, 1,    1,    1,     119.3,      36.7, 0, 0, 0, 0, 1, 1, 0
   168,  1, 1,    1,    1,      14.1,      -5.7, 0, 0, 0, 0, 1, 1, 0
   169,  1, 1,    1,    1,      24.1,      -4.6, 0, 0, 0, 0, 1, 1, 0
   170,  1, 1,    1,    1,       1.8,       0.3, 0, 0, 0, 0, 1, 1, 0
   171,  1, 1,    1,    1,     181.5,      51.4, 0, 0, 0, 0, 1, 1, 0
   173,  1, 1,    1,    1,      82.5,      15.9, 0, 0, 0, 0, 1, 1, 0
   175,  1, 1,    1,    1,     120.7,     -49.6, 0, 0, 0, 0, 1, 1, 0
   180,  1, 1,    1,    1,         5,       0.6, 0, 0, 0, 0, 1, 1, 0
   181,  1, 1,    1,    1,        -3,     -14.3, 0, 0, 0, 0, 1, 1, 0
   185,  1, 1,    1,    1,      22.3,      -2.2, 0, 0, 0, 0, 1, 1, 0
   186,  1, 1,    1,    1,      -2.4,      -2.2, 0, 0, 0, 0, 1, 1, 0
   190,  1, 1,    1,    1,      39.7,      -5.2, 0, 0, 0, 0, 1, 1, 0
   191,  1, 1,    1,    1,      36.6,      -1.4, 0, 0, 0, 0, 1, 1, 0
   192,  1, 1,    1,    1,      38.7,       6.8, 0, 0, 0, 0, 1, 1, 0
   193,  1, 1,    1,    1,      51.7,      10.5, 0, 0, 0, 0, 1, 1, 0
   197,  1, 1,    1,    1,       6.2,      17.4, 0, 0, 0, 0, 1, 1, 0
   199,  1, 1,    1,    1,     250.8,      25.3, 0, 0, 0, 0, 1, 1, 0
   200,  1, 1,    1,    1,      47.3,       6.4, 0, 0, 0, 0, 1, 1, 0
  2598,  1, 1,    1,    1,      44.8,       9.4, 0, 0, 0, 0, 1, 1, 0
   201,  1, 1,    1,    1,        51,       0.4, 0, 0, 0, 0, 1, 1, 0
   203,  1, 1,    1,    1,      76.8,       4.7, 0, 0, 0, 0, 1, 1, 0
   204,  1, 1,    1,    1,      31.4,      -2.8, 0, 0, 0, 0, 1, 1, 0
   207,  1, 1,    1,    1,      13.9,       5.2, 0, 0, 0, 0, 1, 1, 0
   208,  1, 1,    1,    1,       6.3,         5, 0, 0, 0, 0, 1, 1, 0
   209,  1, 1,    1,    1,      44.8,      -0.6, 0, 0, 0, 0, 1, 1, 0
   211,  1, 1,    1,    1,      33.9,       5.9, 0, 0, 0, 0, 1, 1, 0
   215,  1, 1,    1,    1,      -3.6,      -5.3, 0, 0, 0, 0, 1, 1, 0
   216,  1, 1,    1,    1,       186,      34.8, 0, 0, 0, 0, 1, 1, 0
   219,  1, 1,    1,    1,      37.1,       2.4, 0, 0, 0, 0, 1, 1, 0
   221,  1, 1,    1,    1,      22.8,       6.4, 0, 0, 0, 0, 1, 1, 0
   224,  1, 1,    1,    1,      70.6,      -9.6, 0, 0, 0, 0, 1, 1, 0
   227,  1, 1,    1,    1,      15.7,      -0.9, 0, 0, 0, 0, 1, 1, 0
   232,  1, 1,    1,    1,      13.4,         1, 0, 0, 0, 0, 1, 1, 0
  2603,  1, 1,    1,    1,       8.9,      -0.3, 0, 0, 0, 0, 1, 1, 0
   234,  1, 1,    1,    1,       3.8,       0.2, 0, 0, 0, 0, 1, 1, 0
  2604,  1, 1,    1,    1,      53.2,      27.8, 0, 0, 0, 0, 1, 1, 0
   236,  1, 1,    1,    1,      26.8,       0.8, 0, 0, 0, 0, 1, 1, 0
   237,  1, 1,    1,    1,        15,       0.1, 0, 0, 0, 0, 1, 1, 0
   238,  1, 1,    1,    1,      48.1,      15.9, 0, 0, 0, 0, 1, 1, 0
   241,  1, 1,    1,    1,      13.8,       6.5, 0, 0, 0, 0, 1, 1, 0
   242,  1, 1,    1,    1,      43.7,       6.5, 0, 0, 0, 0, 1, 1, 0
   243,  1, 1,    1,    1,     165.4,      29.4, 0, 0, 0, 0, 1, 1, 0
   244,  1, 1,    1,    1,      39.8,       7.7, 0, 0, 0, 0, 1, 1, 0
   245,  1, 1,    1,    1,      36.4,      15.7, 0, 0, 0, 0, 1, 1, 0
   247,  1, 1,    1,    1,      42.1,      16.7, 0, 0, 0, 0, 1, 1, 0
   248,  1, 1,    1,    1,      24.3,       1.4, 0, 0, 0, 0, 1, 1, 0
   249,  1, 1,    1,    1,      13.6,      -1.2, 0, 0, 0, 0, 1, 1, 0
   250,  1, 1,    1,    1,      -2.7,         0, 0, 0, 0, 0, 1, 1, 0
   251,  1, 1,    1,    1,      87.5,      47.6, 0, 0, 0, 0, 1, 1, 0
   253,  1, 1,    1,    1,      -0.9,       0.5, 0, 0, 0, 0, 1, 1, 0
   254,  1, 1,    1,    1,      -0.4,       0.5, 0, 0, 0, 0, 1, 1, 0
   255,  1, 1,    1,    1,       5.8,      -0.5, 0, 0, 0, 0, 1, 1, 0
   258,  1, 1,    1,    1,      65.9,       4.3, 0, 0, 0, 0, 1, 1, 0
   261,  1, 1,    1,    1,      92.8,      34.4, 0, 0, 0, 0, 1, 1, 0
   262,  1, 1,    1,    1,       9.8,       1.5, 0, 0, 0, 0, 1, 1, 0
   263,  1, 1,    1,    1,      30.9,       1.4, 0, 0, 0, 0, 1, 1, 0
  2616,  1, 1,    1,    1,      23.9,       3.2, 0, 0, 0, 0, 1, 1, 0
  2617,  1, 1,    1,    1,        23,       0.5, 0, 0, 0, 0, 1, 1, 0
   264,  1, 1,    1,    1,       195,     -58.4, 0, 0, 0, 0, 1, 1, 0
   265,  1, 1,    1,    1,      14.6,        -4, 0, 0, 0, 0, 1, 1, 0
   268,  1, 1,    1,    1,      21.6,      -4.6, 0, 0, 0, 0, 1, 1, 0
   269,  1, 1,    1,    1,      34.5,       5.6, 0, 0, 0, 0, 1, 1, 0
   270,  1, 1,    1,    1,     155.6,      18.6, 0, 0, 0, 0, 1, 1, 0
   272,  1, 1,    1,    1,      76.6,      12.4, 0, 0, 0, 0, 1, 1, 0
   273,  1, 1,    1,    1,      89.1,      13.2, 0, 0, 0, 0, 1, 1, 0
   276,  1, 1,    1,    1,      21.1,        -6, 0, 0, 0, 0, 1, 1, 0
   277,  1, 1,    1,    1,      20.3,       2.7, 0, 0, 0, 0, 1, 1, 0
   279,  1, 1,    1,    1,      29.3,       1.8, 0, 0, 0, 0, 1, 1, 0
   281,  1, 1,    1,    1,        41,       2.6, 0, 0, 0, 0, 1, 1, 0
   282,  1, 1,    1,    1,     108.4,      30.6, 0, 0, 0, 0, 1, 1, 0
   286,  1, 1,    1,    1,     274.1,      47.6, 0, 0, 0, 0, 1, 1, 0
...
0 / END OF LOAD DATA, BEGIN FIXED SHUNT DATA
    55, 1, 1,       0,      80
    63, 1, 1,       0,     7.7
    79, 1, 1,       0,      15
   102, 1, 1,       0,      80
   286, 1, 1,       0,      80
   356, 1, 1,       0,      80
   421, 1, 1,       0,      80
   444, 1, 1,       0,      80
   450, 1, 1,       0,      80
   505, 1, 1,       0,      80
   557, 1, 1,       0,     -64
   643, 1, 1,       0,      30
   666, 1, 1,       0,    15.4
   678, 1, 1,       0,      10
   685, 1, 1,       0,      20
   853, 1, 1,       0,      15
   919, 1, 1,       0,      80
   921, 1, 1,       0,      60
  1013, 1, 1,       0,     -64
  1027, 1, 1,       0,      80
  1055, 1, 1,       0,      80
  1140, 1, 1,       0,      30
  1155, 1, 1,       0,      19
  1171, 1, 1,       0,     -80
  1178, 1, 1,       0,      78
  1291, 1, 1,       0,      80
  2856, 1, 1,       0,      80
  1483, 1, 1,       0,      80
  2872, 1, 1,       0,      80
  1578, 1, 1,       0,      40
  1582, 1, 1,       0,      20
  1744, 1, 1,       0,      61
  1771, 1, 1,       0,      50
0 / END OF FIXED SHUNT DATA, BEGIN GENERATOR DATA
  1279,  1,         0,         0,        15,       -15,    1.029, 0,     100, 0, 1, 0, 0, 1, 0, 100,        35,         7, 1, 1, 0, 1, 0, 1, 0, 1, 0, 1
  1210,  1,     24.74,      0.66,        20,       -15,    1.023, 0,     100, 0, 1, 0, 0, 1, 1, 100,      36.1,      7.22, 1, 1, 0, 1, 0, 1, 0, 1, 0, 1
   751,  1,        44,      0.33,        21,        -9,    1.035, 0,     100, 0, 1, 0, 0, 1, 1, 100,        46,       9.2, 1, 1, 0, 1, 0, 1, 0, 1, 0, 1
  2777,  1,      1.93,         0,       0.1,      -0.1,    1.102, 0,     100, 0, 1, 0, 0, 1, 1, 100,         4,         0, 1, 1, 0, 1, 0, 1, 0, 1, 0, 1
  2777,  2,         6,       0.9,         1,       0.9,    1.102, 0,     100, 0, 1, 0, 0, 1, 1, 100,         7,       1.4, 1, 1, 0, 1, 0, 1, 0, 1, 0, 1
   978,  1,      6.41,      0.01,         4,        -7,    1.113, 0,     100, 0, 1, 0, 0, 1, 1, 100,        12,       2.4, 1, 1, 0, 1, 0, 1, 0, 1, 0, 1
   158,  1,      0.45,         0,         0,         0,    1.024, 0,     100, 0, 1, 0, 0, 1, 1, 100,       2.7,         0, 1, 1, 0, 1, 0, 1, 0, 1, 0, 1
  1217,  1,        12,     -0.03,         5,        -5,    1.017, 0,     100, 0, 1, 0, 0, 1, 1, 100,        13,       2.6, 1, 1, 0, 1, 0, 1, 0, 1, 0, 1
   367,  1,        48,      1.18,        27,        -9,    0.995, 0,     100, 0, 1, 0, 0, 1, 1, 100,        50,        10, 1, 1, 0, 1, 0, 1, 0, 1, 0, 1
  1127,  1,       7.1,         0,         0,         0,    1.001, 0,     100, 0, 1, 0, 0, 1, 1, 100,        16,       3.2, 1, 1, 0, 1, 0, 1, 0, 1, 0, 1
   460,  1,         0,         0,        40,       -40,    1.065, 0,     100, 0, 1, 0, 0, 1, 0, 100,        62,      12.4, 1, 1, 0, 1, 0, 1, 0, 1, 0, 1
   968,  1,     10.14,      0.05,        10,       -10,     1.07, 0,     100, 0, 1, 0, 0, 1, 1, 100,        18,       3.6, 1, 1, 0, 1, 0, 1, 0, 1, 0, 1
  1827,  1,        21,      0.05,         7,       -12,    1.065, 0,     100, 0, 1, 0, 0, 1, 1, 100,        22,       4.4, 1, 1, 0, 1, 0, 1, 0, 1, 0, 1
  1466,  1,        38,      0.02,         5,       -15,     1.05, 0,     100, 0, 1, 0, 0, 1, 1, 100,        40,         1, 1, 1, 0, 1, 0, 1, 0, 1, 0, 1
  2863,  1,      26.2,      0.02,         6,        -6,    0.987, 0,     100, 0, 1, 0, 0, 1, 1, 100,        40,         1, 1, 1, 0, 1, 0, 1, 0, 1, 0, 1
  1466,  2,        38,      0.02,         5,       -15,     1.05, 0,     100, 0, 1, 0, 0, 1, 1, 100,        40,         1, 1, 1, 0, 1, 0, 1, 0, 1, 0, 1
  2863,  2,      26.2,      0.02,         6,        -6,    0.987, 0,     100, 0, 1, 0, 0, 1, 1, 100,        40,         1, 1, 1, 0, 1, 0, 1, 0, 1, 0, 1
  1072,  1,         0,         0,         1,       0.9,    1.091, 0,     100, 0, 1, 0, 0, 1, 0, 100,        12,       2.4, 1, 1, 0, 1, 0, 1, 0, 1, 0, 1
  1072,  2,         0,         0,         1,       0.9,    1.091, 0,     100, 0, 1, 0, 0, 1, 0, 100,        14,       2.8, 1, 1, 0, 1, 0, 1, 0, 1, 0, 1
  1072,  3,         0,         0,         1,       0.9,    1.091, 0,     100, 0, 1, 0, 0, 1, 0, 100,        12,       2.4, 1, 1, 0, 1, 0, 1, 0, 1, 0, 1
   642,  1,     -3.26,      1.14,         3,        -3,    1.029, 0,     100, 0, 1, 0, 0, 1, 1, 100,     10.33,      2.07, 1, 1, 0, 1, 0, 1, 0, 1, 0, 1
   642,  2,     -4.23,     -0.44,         3,        -3,    1.029, 0,     100, 0, 1, 0, 0, 1, 1, 100,     10.33,      2.07, 1, 1, 0, 1, 0, 1, 0, 1, 0, 1
   542,  1,         5,      0.49,        22,       -10,    1.019, 0,     100, 0, 1, 0, 0, 1, 1, 100,        50,         5, 1, 1, 0, 1, 0, 1, 0, 1, 0, 1
   773,  1,     -5.36,         0,         0,         0,    1.033, 0,     100, 0, 1, 0, 0, 1, 1, 100,        12,       2.4, 1, 1, 0, 1, 0, 1, 0, 1, 0, 1
   399,  1,      3.01,         0,         0,         0,    0.985, 0,     100, 0, 1, 0, 0, 1, 1, 100,      13.8,      2.76, 1, 1, 0, 1, 0, 1, 0, 1, 0, 1
   399,  2,       1.2,         0,         0,         0,    0.985, 0,     100, 0, 1, 0, 0, 1, 1, 100,       1.2,         0, 1, 1, 0, 1, 0, 1, 0, 1, 0, 1
    21,  1,     16.33,         0,         0,         0,    1.079, 0,     100, 0, 1, 0, 0, 1, 1, 100,        24,       4.8, 1, 1, 0, 1, 0, 1, 0, 1, 0, 1
    21,  2,      23.1,         0,         0,         0,    1.079, 0,     100, 0, 1, 0, 0, 1, 1, 100,      27.6,      5.52, 1, 1, 0, 1, 0, 1, 0, 1, 0, 1
   899,  1,     -0.61,         0,         0,         0,    1.044, 0,     100, 0, 1, 0, 0, 1, 1, 100,        18,       3.6, 1, 1, 0, 1, 0, 1, 0, 1, 0, 1
   899,  2,     -1.56,         0,         0,         0,    1.044, 0,     100, 0, 1, 0, 0, 1, 1, 100,        21,       4.2, 1, 1, 0, 1, 0, 1, 0, 1, 0, 1
  2618,  1,       1.2,         0,         0,         0,    1.032, 0,     100, 0, 1, 0, 0, 1, 1, 100,         6,       1.2, 1, 1, 0, 1, 0, 1, 0, 1, 0, 1
  2618,  2,     31.36,      0.08,        10,        -6,    1.032, 0,     100, 0, 1, 0, 0, 1, 1, 100,      37.5,       7.5, 1, 1, 0, 1, 0, 1, 0, 1, 0, 1
   285,  1,       1.2,         0,         0,         0,    1.032, 0,     100, 0, 1, 0, 0, 1, 1, 100,         6,       1.2, 1, 1, 0, 1, 0, 1, 0, 1, 0, 1
   285,  2,        36,      0.07,        10,        -6,    1.032, 0,     100, 0, 1, 0, 0, 1, 1, 100,      37.5,       7.5, 1, 1, 0, 1, 0, 1, 0, 1, 0, 1
   135,  1,      8.82,      0.01,         5,        -6,    1.053, 0,     100, 0, 1, 0, 0, 1, 1, 100,        13,       2.6, 1, 1, 0, 1, 0, 1, 0, 1, 0, 1
    53,  1,      9.25,        -0,       0.8,      -0.8,    1.038, 0,     100, 0, 1, 0, 0, 1, 1, 100,        18,       3.6, 1, 1, 0, 1, 0, 1, 0, 1, 0, 1
    53,  2,        17,        -0,       0.8,      -0.8,    1.038, 0,     100, 0, 1, 0, 0, 1, 1, 100,        18,       3.6, 1, 1, 0, 1, 0, 1, 0, 1, 0, 1
   596,  1,      1.99,         0,         0,         0,    1.069, 0,     100, 0, 1, 0, 0, 1, 1, 100,         4,         0, 1, 1, 0, 1, 0, 1, 0, 1, 0, 1
   958,  1,     -0.45,         0,         0,         0,    0.999, 0,     100, 0, 1, 0, 0, 1, 1, 100,       4.6,         0, 1, 1, 0, 1, 0, 1, 0, 1, 0, 1
  1679,  1,     17.64,      0.03,         6,        -4,    1.048, 0,     100, 0, 1, 0, 0, 1, 1, 100,        21,       4.2, 1, 1, 0, 1, 0, 1, 0, 1, 0, 1
  1679,  2,      9.54,      0.04,       6.7,      -4.5,    1.048, 0,     100, 0, 1, 0, 0, 1, 1, 100,        21,       4.2, 1, 1, 0, 1, 0, 1, 0, 1, 0, 1
  1157,  1,     -1.68,         0,         0,         0,    1.012, 0,     100, 0, 1, 0, 0, 1, 1, 100,       7.2,      1.44, 1, 1, 0, 1, 0, 1, 0, 1, 0, 1
   513,  1,         0,         0,         5,         1,    1.008, 0,     100, 0, 1, 0, 0, 1, 0, 100,        11,       2.2, 1, 1, 0, 1, 0, 1, 0, 1, 0, 1
   513,  2,         0,         0,         5,         1,    1.008, 0,     100, 0, 1, 0, 0, 1, 0, 100,        11,       2.2, 1, 1, 0, 1, 0, 1, 0, 1, 0, 1
   371,  1,      6.54,      0.01,         5,        -5,     1.04, 0,     100, 0, 1, 0, 0, 1, 1, 100,         8,       1.6, 1, 1, 0, 1, 0, 1, 0, 1, 0, 1
   371,  2,      3.34,      0.01,         5,        -5,     1.04, 0,     100, 0, 1, 0, 0, 1, 1, 100,         8,       1.6, 1, 1, 0, 1, 0, 1, 0, 1, 0, 1
   976,  1,     29.37,       0.1,        12,       -15,    1.008, 0,     100, 0, 1, 0, 0, 1, 1, 100,        35,         7, 1, 1, 0, 1, 0, 1, 0, 1, 0, 1
   976,  2,     26.73,       0.1,        12,       -15,    1.008, 0,     100, 0, 1, 0, 0, 1, 1, 100,        35,         7, 1, 1, 0, 1, 0, 1, 0, 1, 0, 1
  2754,  1,      1.42,         0,         0,         0,    1.045, 0,     100, 0, 1, 0, 0, 1, 1, 100,      11.5,       2.3, 1, 1, 0, 1, 0, 1, 0, 1, 0, 1
   749,  1,         0,         0,         5,        -5,    0.952, 0,     100, 0, 1, 0, 0, 1, 0, 100,       8.5,       1.7, 1, 1, 0, 1, 0, 1, 0, 1, 0, 1
  1188,  1,        19,       1.9,         2,       1.9,     1.09, 0,     100, 0, 1, 0, 0, 1, 1, 100,        20,         4, 1, 1, 0, 1, 0, 1, 0, 1, 0, 1
  1254,  1,      8.72,     -6.06,         7,        -7,    1.057, 0,     100, 0, 1, 0, 0, 1, 1, 100,        24,       4.8, 1, 1, 0, 1, 0, 1, 0, 1, 0, 1
   252,  1,       2.2,      0.05,         8,        -5,    0.952, 0,     100, 0, 1, 0, 0, 1, 1, 100,        11,       2.2, 1, 1, 0, 1, 0, 1, 0, 1, 0, 1
   252,  2,      4.45,      0.03,         6,        -5,    0.952, 0,     100, 0, 1, 0, 0, 1, 1, 100,         9,       1.8, 1, 1, 0, 1, 0, 1, 0, 1, 0, 1
   252,  3,      4.74,      0.05,         8,        -5,    0.952, 0,     100, 0, 1, 0, 0, 1, 1, 100,        11,       2.2, 1, 1, 0, 1, 0, 1, 0, 1, 0, 1
   252,  4,      4.47,      0.03,         6,        -5,    0.952, 0,     100, 0, 1, 0, 0, 1, 1, 100,         9,       1.8, 1, 1, 0, 1, 0, 1, 0, 1, 0, 1
   504,  1,        12,      0.03,       6.5,      -6.5,    0.958, 0,     100, 0, 1, 0, 0, 1, 1, 100,      12.4,      2.48, 1, 1, 0, 1, 0, 1, 0, 1, 0, 1
   115,  1,     17.55,         0,         0,         0,     1.07, 0,     100, 0, 1, 0, 0, 1, 1, 100,      25.3,      5.06, 1, 1, 0, 1, 0, 1, 0, 1, 0, 1
   967,  1,      0.82,         0,         0,         0,    1.071, 0,     100, 0, 1, 0, 0, 1, 1, 100,       2.3,         0, 1, 1, 0, 1, 0, 1, 0, 1, 0, 1
  1811,  1,      4.08,     -0.01,       5.5,      -5.5,    1.047, 0,     100, 0, 1, 0, 0, 1, 1, 100,         9,       1.8, 1, 1, 0, 1, 0, 1, 0, 1, 0, 1
  2634,  1,      10.3,      0.02,         7,        -7,    1.061, 0,     100, 0, 1, 0, 0, 1, 1, 100,        14,       2.8, 1, 1, 0, 1, 0, 1, 0, 1, 0, 1
   326,  1,     12.39,      0.02,         7,        -7,    1.059, 0,     100, 0, 1, 0, 0, 1, 1, 100,        14,       2.8, 1, 1, 0, 1, 0, 1, 0, 1, 0, 1
  1829,  1,     10.95,        -0,       7.7,      -7.7,    1.033, 0,     100, 0, 1, 0, 0, 1, 1, 100,      12.8,      2.56, 1, 1, 0, 1, 0, 1, 0, 1, 0, 1
  1314,  1,     27.65,      0.75,        19,       -19,    1.098, 0,     100, 0, 1, 0, 0, 1, 1, 100,        39,       7.8, 1, 1, 0, 1, 0, 1, 0, 1, 0, 1
    71,  1,     15.39,      0.19,        10,        -4,    1.091, 0,     100, 0, 1, 0, 0, 1, 1, 100,        30,         6, 1, 1, 0, 1, 0, 1, 0, 1, 0, 1
    93,  1,         0,         0,         2,       1.9,     1.09, 0,     100, 0, 1, 0, 0, 1, 0, 100,         6,       1.2, 1, 1, 0, 1, 0, 1, 0, 1, 0, 1
   129,  1,      8.67,      0.01,         4,        -4,    1.037, 0,     100, 0, 1, 0, 0, 1, 1, 100,        11,       2.2, 1, 1, 0, 1, 0, 1, 0, 1, 0, 1
  1594,  1,       2.4,     -0.03,         5,        -5,    1.015, 0,     100, 0, 1, 0, 0, 1, 1, 100,        12,       2.4, 1, 1, 0, 1, 0, 1, 0, 1, 0, 1
  1594,  2,      8.04,     -0.03,         5,        -5,    1.015, 0,     100, 0, 1, 0, 0, 1, 1, 100,        12,       2.4, 1, 1, 0, 1, 0, 1, 0, 1, 0, 1
  1354,  1,      3.34,        -0,         2,        -2,    1.009, 0,     100, 0, 1, 0, 0, 1, 1, 100,         5,         0, 1, 1, 0, 1, 0, 1, 0, 1, 0, 1
  1133,  1,       9.1,         0,         0,         0,    1.006, 0,     100, 0, 1, 0, 0, 1, 1, 100,     17.25,      3.45, 1, 1, 0, 1, 0, 1, 0, 1, 0, 1
  1405,  1,     21.58,       0.2,        12,        -8,    1.033, 0,     100, 0, 1, 0, 0, 1, 1, 100,      37.8,      7.56, 1, 1, 0, 1, 0, 1, 0, 1, 0, 1
  2850,  1,     21.68,       0.2,        12,        -8,    1.033, 0,     100, 0, 1, 0, 0, 1, 1, 100,      37.8,      7.56, 1, 1, 0, 1, 0, 1, 0, 1, 0, 1
  2849,  1,     21.44,       0.2,        12,        -8,    1.033, 0,     100, 0, 1, 0, 0, 1, 1, 100,      37.8,      7.56, 1, 1, 0, 1, 0, 1, 0, 1, 0, 1
  1122,  1,     -0.64,         0,         0,         0,    1.037, 0,     100, 0, 1, 0, 0, 1, 1, 100,       6.9,      1.38, 1, 1, 0, 1, 0, 1, 0, 1, 0, 1
  1708,  1,      44.5,      0.77,        27,        -9,     1.03, 0,     100, 0, 1, 0, 0, 1, 1, 100,        45,        44, 1, 1, 0, 1, 0, 1, 0, 1, 0, 1
  1708,  2,      44.5,      0.77,        27,        -9,     1.03, 0,     100, 0, 1, 0, 0, 1, 1, 100,        45,        44, 1, 1, 0, 1, 0, 1, 0, 1, 0, 1
  1658,  1,      -8.3,         0,         0,         0,    1.035, 0,     100, 0, 1, 0, 0, 1, 1, 100,      29.9,      5.98, 1, 1, 0, 1, 0, 1, 0, 1, 0, 1
  2884,  1,      4.17,         0,         0,         0,    1.025, 0,     100, 0, 1, 0, 0, 1, 1, 100,      13.7,      2.74, 1, 1, 0, 1, 0, 1, 0, 1, 0, 1
  1154,  1,      1.99,         0,         0,         0,    1.061, 0,     100, 0, 1, 0, 0, 1, 1, 100,      20.8,      4.16, 1, 1, 0, 1, 0, 1, 0, 1, 0, 1
   231,  1,      1.66,      0.09,       8.3,      -8.3,     1.04, 0,     100, 0, 1, 0, 0, 1, 1, 100,       8.3,      1.66, 1, 1, 0, 1, 0, 1, 0, 1, 0, 1
  2887,  1,     17.93,      0.07,         7,        -3,    1.024, 0,     100, 0, 1, 0, 0, 1, 1, 100,      23.7,      4.74, 1, 1, 0, 1, 0, 1, 0, 1, 0, 1
  2888,  1,     18.06,      0.07,         7,        -3,    1.024, 0,     100, 0, 1, 0, 0, 1, 1, 100,      23.7,      4.74, 1, 1, 0, 1, 0, 1, 0, 1, 0, 1
  1666,  1,     18.07,      0.07,         7,        -3,    1.024, 0,     100, 0, 1, 0, 0, 1, 1, 100,      23.7,      4.74, 1, 1, 0, 1, 0, 1, 0, 1, 0, 1
   499,  1,        16,       0.9,         1,       0.9,    1.084, 0,     100, 0, 1, 0, 0, 1, 1, 100,        17,       3.4, 1, 1, 0, 1, 0, 1, 0, 1, 0, 1
   499,  2,       1.4,       0.9,         1,       0.9,    1.084, 0,     100, 0, 1, 0, 0, 1, 1, 100,         7,       1.4, 1, 1, 0, 1, 0, 1, 0, 1, 0, 1
   499,  3,      7.29,       0.9,         1,       0.9,    1.084, 0,     100, 0, 1, 0, 0, 1, 1, 100,        17,       3.4, 1, 1, 0, 1, 0, 1, 0, 1, 0, 1
  2709,  1,     12.44,      0.02,         4,        -4,    1.021, 0,     100, 0, 1, 0, 0, 1, 1, 100,        24,       4.8, 1, 1, 0, 1, 0, 1, 0, 1, 0, 1
   709,  1,     14.04,      0.02,         4,        -4,    1.021, 0,     100, 0, 1, 0, 0, 1, 1, 100,        24,       4.8, 1, 1, 0, 1, 0, 1, 0, 1, 0, 1
  2710,  1,      9.39,      0.02,         4,        -4,    1.021, 0,     100, 0, 1, 0, 0, 1, 1, 100,        24,       4.8, 1, 1, 0, 1, 0, 1, 0, 1, 0, 1
  2708,  1,     11.85,      0.02,         4,        -4,    1.021, 0,     100, 0, 1, 0, 0, 1, 1, 100,        24,       4.8, 1, 1, 0, 1, 0, 1, 0, 1, 0, 1
  1280,  1,      2.05,         0,         0,         0,    1.044, 0,     100, 0, 1, 0, 0, 1, 1, 100,        18,       3.6, 1, 1, 0, 1, 0, 1, 0, 1, 0, 1
  1493,  1,         0,         0,        11,       -11,    0.951, 0,     100, 0, 1, 0, 0, 1, 0, 100,        18,       3.6, 1, 1, 0, 1, 0, 1, 0, 1, 0, 1
   745,  1,     17.76,      0.03,         8,       -18,    0.984, 0,     100, 0, 1, 0, 0, 1, 1, 100,        29,       5.8, 1, 1, 0, 1, 0, 1, 0, 1, 0, 1
  2727,  1,     19.34,      0.01,         5,       -18,    0.991, 0,     100, 0, 1, 0, 0, 1, 1, 100,        29,       5.8, 1, 1, 0, 1, 0, 1, 0, 1, 0, 1
  1445,  1,     21.41,         0,         0,         0,    1.064, 0,     100, 0, 1, 0, 0, 1, 1, 100,        55,        11, 1, 1, 0, 1, 0, 1, 0, 1, 0, 1
   316,  1,         0,       0.9,         1,       0.9,    1.109, 0,     100, 0, 1, 0, 0, 1, 1, 100,         5,         0, 1, 1, 0, 1, 0, 1, 0, 1, 0, 1
   316,  2,      6.45,     -0.15,      3.14,     -3.43,    1.109, 0,     100, 0, 1, 0, 0, 1, 1, 100,       9.8,      1.96, 1, 1, 0, 1, 0, 1, 0, 1, 0, 1
   564,  1,     -3.76,         0,         0,         0,    1.035, 0,     100, 0, 1, 0, 0, 1, 1, 100,        10,         2, 1, 1, 0, 1, 0, 1, 0, 1, 0, 1
  1047,  1,     -1.41,         0,         0,         0,    1.022, 0,     100, 0, 1, 0, 0, 1, 1, 100,        12,       2.4, 1, 1, 0, 1, 0, 1, 0, 1, 0, 1
  1047,  2,     -0.06,         0,         0,         0,    1.022, 0,     100, 0, 1, 0, 0, 1, 1, 100,         2,         0, 1, 1, 0, 1, 0, 1, 0, 1, 0, 1
  1335,  1,      0.49,        -0,         3,        -1,    1.046, 0,     100, 0, 1, 0, 0, 1, 1, 100,         2,         0, 1, 1, 0, 1, 0, 1, 0, 1, 0, 1
  2624,  1,      19.2,      0.18,        15,       -17,    1.051, 0,     100, 0, 1, 0, 0, 1, 1, 100,        31,       6.2, 1, 1, 0, 1, 0, 1, 0, 1, 0, 1
   298,  1,     27.16,      0.18,        15,       -17,     1.05, 0,     100, 0, 1, 0, 0, 1, 1, 100,        31,       6.2, 1, 1, 0, 1, 0, 1, 0, 1, 0, 1
   298,  2,     19.69,      0.18,        15,       -17,     1.05, 0,     100, 0, 1, 0, 0, 1, 1, 100,        31,       6.2, 1, 1, 0, 1, 0, 1, 0, 1, 0, 1
  2625,  1,     19.04,      0.18,        15,       -17,     1.05, 0,     100, 0, 1, 0, 0, 1, 1, 100,        31,       6.2, 1, 1, 0, 1, 0, 1, 0, 1, 0, 1
  2625,  2,      27.7,      0.18,        15,       -17,     1.05, 0,     100, 0, 1, 0, 0, 1, 1, 100,        31,       6.2, 1, 1, 0, 1, 0, 1, 0, 1, 0, 1
  2624,  2,     24.52,      0.18,        15,       -17,    1.051, 0,     100, 0, 1, 0, 0, 1, 1, 100,        31,       6.2, 1, 1, 0, 1, 0, 1, 0, 1, 0, 1
  2721,  1,     14.43,        -0,         0,     -0.01,     1.03, 0,     100, 0, 1, 0, 0, 1, 1, 100,        24,       4.8, 1, 1, 0, 1, 0, 1, 0, 1, 0, 1
  2718,  1,      4.96,      0.09,         8,        -7,     1.03, 0,     100, 0, 1, 0, 0, 1, 1, 100,        24,       4.8, 1, 1, 0, 1, 0, 1, 0, 1, 0, 1
   741,  1,     14.36,      0.09,         8,        -7,     1.03, 0,     100, 0, 1, 0, 0, 1, 1, 100,        24,       4.8, 1, 1, 0, 1, 0, 1, 0, 1, 0, 1
  2719,  1,     12.97,      0.09,         8,        -7,     1.03, 0,     100, 0, 1, 0, 0, 1, 1, 100,        24,       4.8, 1, 1, 0, 1, 0, 1, 0, 1, 0, 1
  2720,  1,     14.29,      0.09,         8,        -7,     1.03, 0,     100, 0, 1, 0, 0, 1, 1, 100,        24,       4.8, 1, 1, 0, 1, 0, 1, 0, 1, 0, 1
   283,  1,     16.23,      0.32,         8,        -8,    1.074, 0,     100, 0, 1, 0, 0, 1, 1, 100,      23.5,       4.7, 1, 1, 0, 1, 0, 1, 0, 1, 0, 1
  1506,  1,        26,      0.04,         6,       -11,    1.037, 0,     100, 0, 1, 0, 0, 1, 1, 100,        27,       5.4, 1, 1, 0, 1, 0, 1, 0, 1, 0, 1
  1506,  2,      8.36,      0.04,         6,       -11,    1.037, 0,     100, 0, 1, 0, 0, 1, 1, 100,        27,       5.4, 1, 1, 0, 1, 0, 1, 0, 1, 0, 1
  1847,  1,        31,      0.15,        12,        -8,    1.033, 0,     100, 0, 1, 0, 0, 1, 1, 100,        32,       6.4, 1, 1, 0, 1, 0, 1, 0, 1, 0, 1
  1398,  1,      4.24,         0,         0,         0,    1.018, 0,     100, 0, 1, 0, 0, 1, 1, 100,     20.02,         4, 1, 1, 0, 1, 0, 1, 0, 1, 0, 1
  1398,  2,      7.16,         0,         0,         0,    1.018, 0,     100, 0, 1, 0, 0, 1, 1, 100,     20.35,      4.07, 1, 1, 0, 1, 0, 1, 0, 1, 0, 1
   225,  1,         9,      1.24,        45,       -45,    1.046, 0,     100, 0, 1, 0, 0, 1, 1, 100,        45,         9, 1, 1, 0, 1, 0, 1, 0, 1, 0, 1
   225,  2,     37.28,      1.24,        45,       -45,    1.046, 0,     100, 0, 1, 0, 0, 1, 1, 100,        45,         9, 1, 1, 0, 1, 0, 1, 0, 1, 0, 1
  1607,  1,     -0.18,         0,         0,         0,    1.032, 0,     100, 0, 1, 0, 0, 1, 1, 100,      1.74,         0, 1, 1, 0, 1, 0, 1, 0, 1, 0, 1
   314,  1,     17.33,      0.08,        10,       -10,    0.962, 0,     100, 0, 1, 0, 0, 1, 1, 100,        20,         4, 1, 1, 0, 1, 0, 1, 0, 1, 0, 1
  2680,  1,    200.07,     17.61,       100,       -60,    1.094, 0,     100, 0, 1, 0, 0, 1, 1, 100,       239,        44, 1, 1, 0, 1, 0, 1, 0, 1, 0, 1
   582,  1,        82,      8.36,        70,       -45,    0.957, 0,     100, 0, 1, 0, 0, 1, 1, 100,       169,        82, 1, 1, 0, 1, 0, 1, 0, 1, 0, 1
  2978,  1,        82,      8.33,        70,       -45,    0.957, 0,     100, 0, 1, 0, 0, 1, 1, 100,       169,        82, 1, 1, 0, 1, 0, 1, 0, 1, 0, 1
  2977,  1,    202.54,     17.71,       100,       -60,    1.094, 0,     100, 0, 1, 0, 0, 1, 1, 100,       239,        44, 1, 1, 0, 1, 0, 1, 0, 1, 0, 1
   240,  1,       232,     -5.18,        80,       -75,    1.073, 0,     100, 0, 1, 0, 0, 1, 1, 100,       239,      47.8, 1, 1, 0, 1, 0, 1, 0, 1, 0, 1
  1655,  1,      3.07,         0,         0,         0,    0.973, 0,     100, 0, 1, 0, 0, 1, 1, 100,        12,       2.4, 1, 1, 0, 1, 0, 1, 0, 1, 0, 1
  1655,  2,      0.49,         0,         0,         0,    0.973, 0,     100, 0, 1, 0, 0, 1, 1, 100,         4,         0, 1, 1, 0, 1, 0, 1, 0, 1, 0, 1
  1150,  1,     -1.68,         0,         0,         0,    1.058, 0,     100, 0, 1, 0, 0, 1, 1, 100,        54,      10.8, 1, 1, 0, 1, 0, 1, 0, 1, 0, 1
  1447,  1,         6,     -0.02,         2,        -3,    1.063, 0,     100, 0, 1, 0, 0, 1, 1, 100,         7,       1.4, 1, 1, 0, 1, 0, 1, 0, 1, 0, 1
   906,  1,         0,         0,         8,        -8,    1.065, 0,     100, 0, 1, 0, 0, 1, 0, 100,        21,       4.2, 1, 1, 0, 1, 0, 1, 0, 1, 0, 1
  1474,  1,         0,        -0,         1,        -1,    1.023, 0,     100, 0, 1, 0, 0, 1, 0, 100,         2,         0, 1, 1, 0, 1, 0, 1, 0, 1, 0, 1
  1474,  2,      4.62,        -0,         3,        -3,    1.023, 0,     100, 0, 1, 0, 0, 1, 1, 100,         8,       1.6, 1, 1, 0, 1, 0, 1, 0, 1, 0, 1
  1474,  3,       1.6,        -0,         3,        -3,    1.023, 0,     100, 0, 1, 0, 0, 1, 1, 100,         8,       1.6, 1, 1, 0, 1, 0, 1, 0, 1, 0, 1
   963,  1,         8,         0,         1,        -2,        1, 0,     100, 0, 1, 0, 0, 1, 1, 100,       8.9,      1.78, 1, 1, 0, 1, 0, 1, 0, 1, 0, 1
   962,  1,     18.18,         0,         0,         0,    1.038, 0,     100, 0, 1, 0, 0, 1, 1, 100,        22,       4.4, 1, 1, 0, 1, 0, 1, 0, 1, 0, 1
   923,  1,        11,         0,         5,        -5,     1.04, 0,     100, 0, 1, 0, 0, 1, 1, 100,        12,       2.4, 1, 1, 0, 1, 0, 1, 0, 1, 0, 1
  1153,  1,        15,     -0.38,      17.3,     -17.3,    1.045, 0,     100, 0, 1, 0, 0, 1, 1, 100,        16,       3.2, 1, 1, 0, 1, 0, 1, 0, 1, 0, 1
  1153,  2,        16,     -0.13,        10,       -10,    1.045, 0,     100, 0, 1, 0, 0, 1, 1, 100,      16.8,      3.36, 1, 1, 0, 1, 0, 1, 0, 1, 0, 1
   274,  1,      5.26,      0.01,       3.7,      -3.7,    1.033, 0,     100, 0, 1, 0, 0, 1, 1, 100,       6.7,      1.34, 1, 1, 0, 1, 0, 1, 0, 1, 0, 1
   274,  2,      3.15,      0.01,         3,        -3,    1.033, 0,     100, 0, 1, 0, 0, 1, 1, 100,       5.6,      1.12, 1, 1, 0, 1, 0, 1, 0, 1, 0, 1
  1776,  1,         9,      0.02,         5,        -5,    1.033, 0,     100, 0, 1, 0, 0, 1, 1, 100,        10,         2, 1, 1, 0, 1, 0, 1, 0, 1, 0, 1
  1776,  2,         9,      0.02,         5,        -5,    1.033, 0,     100, 0, 1, 0, 0, 1, 1, 100,        10,         2, 1, 1, 0, 1, 0, 1, 0, 1, 0, 1
  2914,  1,         9,      0.02,         5,        -5,    1.033, 0,     100, 0, 1, 0, 0, 1, 1, 100,        10,         2, 1, 1, 0, 1, 0, 1, 0, 1, 0, 1
  2914,  2,         9,      0.02,         5,        -5,    1.033, 0,     100, 0, 1, 0, 0, 1, 1, 100,        10,         2, 1, 1, 0, 1, 0, 1, 0, 1, 0, 1
   184,  1,         0,         0,         8,       -17,    1.067, 0,     100, 0, 1, 0, 0, 1, 0, 100,      23.4,      4.68, 1, 1, 0, 1, 0, 1, 0, 1, 0, 1
...